24
H10 C12 S2
C -0.654025 0.000000 -3.984659
C -0.654025 -0.024480 -2.554918
S -0.654025 -1.220811 -1.826950
C -0.654025 1.232365 -1.841624
C -0.654025 0.024480 0.286705
C -0.654025 -1.232365 -0.426589
C -0.654025 1.186342 -4.669055
C -0.654025 2.447291 -2.595754
H -0.904829 2.216496 0.173910
C -0.654025 -0.000000 1.716446
C -0.654025 -2.447291 0.327541
C -0.654025 -2.426560 1.696985
C -0.654025 -1.186341 2.400843
H -0.654025 0.946412 2.250910
H -0.654025 -3.391428 -0.210933
H -0.654025 -3.357305 2.256597
H -0.654025 -1.189539 3.486863
C -0.654025 2.426560 -3.965198
H -0.654025 -0.946412 -4.519123
H -0.654025 -2.166796 -2.363823
H -0.654025 1.189539 -5.755076
H -0.654025 3.391428 -2.057280
H -0.654025 3.357305 -4.524810
S -0.806760 1.241098 -0.415613