30
C9N3H18
C        1.684559204     -0.038588378      0.523659053
C        2.422720511      0.115859265      1.829878053
N        1.684559204     -0.038588378     -0.946340947
N        3.668794466      0.376578953      2.564878013
C        1.134266332     -1.253713169     -1.564037877
H        1.751912565     -1.588561854     -2.405166845
H        1.081669259     -2.078497887     -0.844266204
H        0.121098536     -1.083587559     -1.945688195
C        1.134266332      1.176536413     -1.564037877
H        1.742117376      1.501359965     -2.416161824
H        0.114477037      1.011423932     -1.929927486
H        1.098087047      2.006334260     -0.849030699
C        4.657604459     -0.709726294      2.509238926
H        4.976779810     -1.010596214      3.513585899
H        4.248002071     -1.597129457      2.013407249
H        5.553246446     -0.406059720      1.955415205
C        4.286347732      1.681994066      2.290252181
H        4.875946237      2.032243605      3.145124872
H        4.957111033      1.631974290      1.424987968
H        3.528875124      2.444798922      2.077008964
C        1.004548975     -0.186199684      1.850995959
N       -0.163899302     -0.576723126      2.652943629
C       -0.077329835     -1.912282566      3.260962305
H       -1.065472893     -2.278530979      3.561867358
H        0.346422852     -2.642251865      2.561901488
H        0.557556477     -1.903645921      4.154244707
C       -0.609641475      0.430638856      3.626306743
H       -1.661189375      0.697592600      3.471093445
H       -0.510553360      0.063564159      4.654190615
H       -0.020161084      1.351082125      3.546270953
