44
H19 C24 N1
C 0.000000 0.000000 -1.516477
C -1.205119 0.000000 -0.793969
C 1.205119 0.000000 -0.793969
C -1.205443 0.000000 0.599883
C 1.205443 0.000000 0.599883
C 0.000000 0.000000 1.303531
H -2.148336 0.000000 -1.331376
H 2.148336 0.000000 -1.331376
H -2.149547 0.000000 1.137169
H 0.000000 0.000000 2.389531
C 2.543880 0.000000 1.361583
C 2.575759 0.000000 2.766330
C 3.767888 0.000000 0.671556
C 3.787017 0.000000 3.456025
C 4.979466 0.000000 1.360687
C 4.994792 0.000000 2.756387
H 1.642166 0.000000 3.320287
H 3.767343 0.000000 -0.414015
H 3.787017 0.000000 4.542306
H 5.913392 0.000000 0.805900
H 0.000000 0.000000 -2.596477
N 6.127897 -0.005767 3.553257
C 7.384069 -0.120417 2.798415
C 8.288985 -1.164066 3.055816
C 7.713976 0.810530 1.799000
C 9.480163 -1.273042 2.340245
C 8.905000 0.702085 1.083091
C 9.793876 -0.340358 1.350346
H 8.054772 -1.894885 3.823613
H 7.029718 1.625178 1.583119
H 10.164529 -2.088406 2.556651
H 9.138897 1.433640 0.314895
H 10.721905 -0.425059 0.792687
C 6.104424 -0.919628 4.704433
C 6.987066 -0.744986 5.783681
C 5.198710 -1.992601 4.756797
C 6.965050 -1.611340 6.875363
C 5.176214 -2.859291 5.848203
C 6.059396 -2.672755 6.912819
H 7.695497 0.077346 5.764688
H 4.507441 -2.146748 3.934088
H 7.656979 -1.456659 7.698354
H 4.467126 -3.682006 5.866723
H 6.042056 -3.347894 7.763280