14
C6NH7
C       -0.090450209      0.000000000     -1.973818796
C       -1.246518902     -0.354690359     -1.275654796
C        1.065618484      0.354690359     -1.275654796
H       -2.145944008     -0.630640582     -1.818827796
H        1.965043590      0.630640582     -1.818827796
C       -1.246518902     -0.354690359      0.120675204
C        1.065618484      0.354690359      0.120675204
H       -2.145944008     -0.630640582      0.663848204
H        1.965043590      0.630640582      0.663848204
C       -0.090450209      0.000000000      0.818839204
H       -0.090450209      0.000000000     -3.060165796
N       -0.090450209      0.000000000      2.288839204
H        0.288018209      0.835712000      2.713665313
H        0.288018209     -0.835712000      2.713665313
