24
C14H10
C       -0.082229244      0.540390940      1.381255330
C       -0.082229244      0.515910891      2.810996449
C       -0.082229244     -0.680420447      3.538963795
C       -0.082229244      1.772755690      3.524290297
C       -0.082229244      1.761202254      4.924651552
C       -0.082229244      0.564870916      5.652618898
C       -0.082229244     -0.691973883      4.939325050
C       -0.082229244      1.726733074      0.696858753
C       -0.082229244      2.987682351      2.770160236
H       -0.082229244      2.707187246      5.461523945
C       -0.082229244      0.540390867      7.082360017
C       -0.082229244     -1.906900544      5.693455111
C       -0.082229244     -1.886169123      7.062898992
C       -0.082229244     -0.645950397      7.766757088
H       -0.082229244      1.486803013      7.616824495
H       -0.082229244     -2.851037291      5.154981312
H       -0.082229244     -2.816913959      7.622510695
H       -0.082229244     -0.649147900      8.852777307
C       -0.082229244      2.966950930      1.400716356
H       -0.082229244     -0.406021206      0.846790852
H       -0.082229244     -1.626405439      3.002091402
H       -0.082229244      1.729929707     -0.389161960
H       -0.082229244      3.931819098      3.308634035
H       -0.082229244      3.897695766      0.841104652
