6
C3H3
C       -2.866192779     -0.669294560      6.282873767
C       -2.922262792     -0.702217746      7.789763438
C       -1.928035508     -1.564619278      7.053067801
H       -3.116578654     -0.445989335      5.250194162
H       -3.351982852     -0.371577573      8.730509646
H       -1.221540301     -2.381206587      7.167240345
