34
C18NH15
N       -1.416242061     -0.268447790     -1.693218163
C       -1.772010390      0.926024163     -0.913753188
C       -1.158907500      1.191115622      0.322435606
C       -2.734835274      1.835104426     -1.383724132
C       -1.496034832      2.323625901      1.061752570
C       -3.072386111      2.967787767     -0.644865670
C       -2.454506745      3.217466898      0.581551368
H       -0.412125048      0.502419553      0.705160180
H       -3.221491697      1.650442133     -2.336367700
H       -1.008769013      2.507952103      2.014959237
H       -3.819718906      3.656621661     -1.028282723
H       -2.717339758      4.099913805      1.157401186
C       -0.589666745     -1.197930298     -0.909805426
C       -1.112984087     -1.858172627      0.214716871
C        0.746178140     -1.451373780     -1.264229204
C       -0.329476218     -2.739561436      0.957746568
C        1.530185628     -2.332653269     -0.521596949
C        0.996013015     -2.981024436      0.593072410
H       -2.142726009     -1.677564795      0.507081011
H        1.171555546     -0.952374764     -2.129398811
H       -0.755606312     -3.238632995      1.823395342
H        2.560543036     -2.513034277     -0.814570292
H        1.606666809     -3.667703567      1.171838738
C       -0.915443060      0.013422390     -3.046233153
C       -0.613302514      1.326171948     -3.445896834
C       -0.725295761     -1.022247415     -3.976589768
C       -0.138430481      1.593756449     -4.728752645
C       -0.250453825     -0.755294013     -5.259588194
C        0.045276216      0.554154530     -5.641820567
H       -0.752559199      2.142149141     -2.743576963
H       -0.952206732     -2.044318756     -3.689629855
H        0.088480135      2.616668507     -5.015404996
H       -0.111279912     -1.572158710     -5.961991044
H        0.415254370      0.762393382     -6.641395223
