22
C12H10
C        0.000000000      0.000000000     -1.516477280
C       -1.205119390      0.000000000     -0.793968717
C        1.205119390      0.000000000     -0.793968717
C       -1.205443246      0.000000000      0.599883442
C        1.205443246      0.000000000      0.599883442
C        0.000000000      0.000000000      1.303531017
H       -2.148335906      0.000000000     -1.331376392
H        2.148335906      0.000000000     -1.331376392
H       -2.149546620      0.000000000      1.137169118
H        0.000000000      0.000000000      2.389531361
C        2.543880340      0.000000000      1.361582953
C        2.607344493     -0.387088503      2.710829470
C        3.736302243      0.387088503      0.727056463
C        3.818610612     -0.387192527      3.400509340
C        4.947871750      0.387192526      1.416203227
C        4.994791841      0.000000000      2.756387462
H        1.698472061     -0.690052899      3.221346740
H        3.711036535      0.690052899     -0.315075306
H        3.843354883     -0.690441785      4.443310704
H        5.857053555      0.690441784      0.904895677
H        5.938651025     -0.000000001      3.293534171
H        0.000000000      0.000000000     -2.596477280
