24
C12H10S2
C       -0.654024588      0.000000000     -3.984658831
C       -0.654024588     -0.024480048     -2.554917711
S       -0.654024588     -1.220811387     -1.826950366
C       -0.654024588      1.232364750     -1.841623864
C       -0.654024588      0.024479976      0.286704737
C       -0.654024588     -1.232364823     -0.426589111
C       -0.654024588      1.186342134     -4.669055408
C       -0.654024588      2.447291412     -2.595753925
H       -0.904829026      2.216495673      0.173910341
C       -0.654024588     -0.000000072      1.716445856
C       -0.654024588     -2.447291484      0.327540950
C       -0.654024588     -2.426560063      1.696984831
C       -0.654024588     -1.186341337      2.400842927
H       -0.654024588      0.946412073      2.250910334
H       -0.654024588     -3.391428230     -0.210932849
H       -0.654024588     -3.357304899      2.256596534
H       -0.654024588     -1.189538840      3.486863146
C       -0.654024588      2.426559991     -3.965197805
H       -0.654024588     -0.946412146     -4.519123309
H       -0.654024588     -2.166796378     -2.363822759
H       -0.654024588      1.189538768     -5.755076121
H       -0.654024588      3.391428158     -2.057280126
H       -0.654024588      3.357304826     -4.524809509
S       -0.806760041      1.241097846     -0.415613378
