52
C26NH21S2O2
C        0.443152275      0.581142353     -3.751737248
C        0.165661587      0.423873583     -2.357813148
S        0.180628701     -0.826968136     -1.728276725
C       -0.140276103      1.600427401     -1.576423232
C       -0.398737241      0.207834735      0.419234997
C       -0.092799551     -0.968719084     -0.362154920
C        0.420948722      1.818050468     -4.339420539
C       -0.152560643      2.872093519     -2.230237669
C       -0.676227929      0.050565965      1.813159095
C       -0.080515012     -2.240385201      0.291659516
C       -0.352133971     -2.347331206      1.629789566
C       -0.654024588     -1.186341337      2.400842927
H       -0.906080581      0.936765145      2.398963668
H        0.149824527     -3.123961032     -0.297904454
H       -0.339164966     -3.319857225      2.112983269
C        0.119058316      2.979039524     -3.568367717
H        0.673004927     -0.305056829     -4.337541821
H        0.633760940      1.922282820     -5.399277974
H       -0.382900181      3.755669350     -1.640673698
H        0.106089312      3.951565542     -4.051561422
S       -0.569817472      1.458705487     -0.215423819
N       -0.920296355     -1.328543107      3.826332985
C        0.059186788     -2.151983230      4.549837745
C       -0.334926838     -3.323586892      5.217932560
C        1.416137092     -1.789825203      4.592951617
C        0.593582566     -4.104577871      5.904042843
C        2.345117065     -2.570404009      5.278893947
C        1.938200794     -3.731648522      5.937789735
H       -1.378266427     -3.622769080      5.198009592
H        1.743311022     -0.888570847      4.083871848
H        0.265683034     -5.006328241      6.413292530
H        3.389019676     -2.270589126      5.298526904
C       -2.298757552     -1.745981818      4.120424217
C       -2.841002553     -1.592842055      5.407611049
C       -3.111546590     -2.309465857      3.122330491
C       -4.148021380     -1.988560627      5.686775052
C       -4.418638122     -2.705377010      3.400880363
C       -4.943160281     -2.546784966      4.684600892
H       -2.231185956     -1.159791693      6.194411854
H       -2.713477980     -2.437298849      2.120499910
H       -4.545876040     -1.860429305      6.689422104
H       -5.028439864     -3.138656412      2.613214271
O       -6.293489616     -2.955704519      4.972690262
O        2.898151954     -4.526600790      6.659000289
C       -7.185843963     -1.862918167      4.684381904
H       -7.125743880     -1.565910621      3.631156880
H       -8.227487469     -2.132862059      4.892268037
H       -6.946106549     -0.981556982      5.290052694
C        2.911437244     -4.109398939      8.037175212
H        1.917163290     -4.196161123      8.489944560
H        3.599612037     -4.720323886      8.632400973
H        3.228580153     -3.064894449      8.134845150
