64
C26N4H32S2
C       -0.654024588      0.000000000     -3.984658831
C       -0.654024588     -0.024480048     -2.554917711
S       -0.654024588     -1.220811387     -1.826950366
C       -0.654024588      1.232364750     -1.841623864
C       -0.654024588      0.024479976      0.286704737
C       -0.654024588     -1.232364823     -0.426589111
C       -0.654024588      1.186342134     -4.669055408
C       -0.654024588      2.447291412     -2.595753925
H       -0.904829026      2.216495673      0.173910341
C       -0.654024588     -0.000000072      1.716445856
C       -0.654024588     -2.447291484      0.327540950
C       -0.654024588     -2.426560063      1.696984831
C       -0.654024588     -1.186341337      2.400842927
H       -0.654024588      0.946412073      2.250910334
H       -0.654024588     -3.391428230     -0.210932849
H       -0.654024588     -3.357304899      2.256596534
C       -0.654024588      2.426559991     -3.965197805
H       -0.654024588     -0.946412146     -4.519123309
H       -0.654024588     -2.166796378     -2.363822759
H       -0.654024588      3.391428158     -2.057280126
H       -0.654024588      3.357304826     -4.524809509
S       -0.806760041      1.241097846     -0.415613378
C       -0.727791342     -1.189661406      3.761776024
C       -0.117559970     -1.279083049      5.127663177
C       -1.598415956     -1.085339487      4.916776370
N        1.029340797     -1.437751608      6.033391016
N       -2.951315974     -0.916953753      5.466510657
C        1.855492404     -2.627236846      5.781402147
H        2.125392307     -3.131005265      6.716538434
H        1.326823985     -3.354877952      5.155178811
H        2.787018919     -2.364456146      5.267288028
C        1.855492404     -0.233441583      6.200755543
H        2.140097770     -0.087301065      7.248968875
H        2.778864251     -0.298277703      5.613994728
H        1.320271539      0.665956170      5.875592541
C       -3.526430881     -2.126091973      6.073245862
H       -4.509678983     -2.357011951      5.647795995
H       -2.883364436     -2.998558601      5.910841824
H       -3.654580982     -2.007338137      7.155181049
C       -3.123346273      0.256096896      6.335566323
H       -4.159130133      0.613988776      6.322388675
H       -2.867841963      0.023128695      7.375542721
H       -2.483155333      1.086420082      6.016461892
C       -0.540469014      1.347638281     -6.026785573
C       -1.128362923      1.598383566     -7.382342221
C        0.337928156      1.308603346     -7.179951115
N       -2.255429994      1.896156995     -8.277859280
N        1.686075166      1.117205075     -7.733816029
C       -3.407868835      0.993842553     -8.141428470
H       -3.804074046      0.701761245     -9.120621196
H       -3.134998750      0.075836350     -7.608592595
H       -4.222995847      1.469152264     -7.583972369
C       -2.673612361      3.305291203     -8.296945668
H       -2.884487892      3.645145234     -9.317307958
H       -3.581692406      3.460101699     -7.703201712
H       -1.895192827      3.958122330     -7.885869982
C        1.875322174     -0.135238814     -8.479785113
H        2.735262552     -0.699254962     -8.100975418
H        0.995028629     -0.783335853     -8.401292778
H        2.049784791      0.056976563     -9.544550212
C        2.219738601      2.270471352     -8.472788445
H        3.314981189      2.292982375     -8.440456079
H        1.921172861      2.241801597     -9.526896640
H        1.857638004      3.215765963     -8.052776627
