42
C19N2H19S2
C       -2.823219786      0.474075375     -3.721419248
C       -2.468797826      0.367481020     -2.340194552
S       -2.330203799     -0.868423837     -1.696396442
C       -2.247101666      1.580962509     -1.587359612
C       -1.760929406      0.253053821      0.409904344
C       -1.982625567     -0.960427669     -0.342930597
C       -2.951339805      1.697506084     -4.323589401
C       -2.391539510      2.836931021     -2.255521083
C       -1.406507447      0.146459467      1.791129039
C       -1.838187722     -2.216396179      0.325230874
C       -1.497150744     -2.274399449      1.650423591
C       -1.278387274     -1.076970404      2.393299713
H       -1.239172066      1.048767771      2.360548564
H       -2.002202373     -3.127774566     -0.230546625
H       -1.394177889     -3.235355407      2.132461181
C       -2.732576488      2.894934291     -3.580713798
H       -2.990555301     -0.428232556     -4.290839324
H       -3.219992705      1.751591727     -5.368242627
H       -2.227524860      3.748309408     -1.699743583
H       -2.837486869      3.852051211     -4.069918267
S       -2.040278184      1.511048828     -0.169880718
C       -0.895308140     -1.154092523      3.882897832
C        0.247790557     -1.335456496      4.199808670
C       -1.976668189     -0.982804169      4.965912487
N        1.648086460     -1.557627362      4.588024447
N       -3.377376559     -0.763164555      4.577744350
C        2.196208246     -2.685537620      3.821029691
H        2.860205108     -3.259800109      4.450101040
H        1.388062477     -3.315884499      3.480495952
H        2.743093242     -2.309602644      2.968979402
C        2.432559887     -0.346640963      4.306931252
H        3.179666257     -0.215198829      5.075667252
H        2.917352967     -0.446500082      3.347033432
H        1.777010858      0.511508401      4.291597006
C       -4.185813516     -1.921894165      4.983546492
H       -4.816095233     -2.226813707      4.161251514
H       -3.533415848     -2.737390255      5.258761695
H       -4.801918526     -1.652791098      5.828767266
C       -3.886009277      0.445797809      5.241523502
H       -4.741471247      0.821148224      4.699585421
H       -4.177857424      0.205309945      6.253151026
H       -3.112390826      1.199184539      5.259493666
