62
C26N4H32
C       -2.287158474      0.398788277     -2.621865831
C       -3.492277864      0.398788277     -1.899357268
C       -1.082039084      0.398788277     -1.899357268
C       -3.492601720      0.398788277     -0.505505109
C       -1.081715228      0.398788277     -0.505505109
C       -2.287158474      0.398788277      0.198142466
H       -0.138822568      0.398788277     -2.436764943
H       -4.436705094      0.398788277      0.031780567
H       -2.287158474      0.398788277      1.284142810
C        0.256721866      0.398788277      0.256194402
C        0.312144760      0.734145533      1.619570794
C        1.457185028      0.063431021     -0.392461963
C        1.523408719      0.734235655      2.309254461
C        2.668756695      0.063340899      0.296681004
C        2.707633367      0.398788277      1.650998911
H       -0.603021361      0.996621189      2.141147160
H        1.438213009     -0.199044635     -1.445652827
H        1.541853382      0.996958104      3.363125319
H        3.584238108     -0.199381549     -0.225696040
H       -2.287158474      0.398788277     -3.701865831
C        3.775907982      0.296191897      2.369845376
C        5.142306428      0.643256174      2.878301810
C        4.477418875     -0.674916800      3.186990679
N        6.292732190      1.549463660      3.005614648
N        4.505462316     -1.993888425      3.835394425
C        6.837651034      2.038751750      1.731032121
H        7.631537602      1.381704659      1.358015111
H        6.061678972      2.090117306      0.958803864
H        7.263479073      3.042874101      1.838351520
C        6.113165224      2.643865108      3.970467578
H        7.015396729      2.796001486      4.573743044
H        5.891418103      3.590068785      3.463876660
H        5.286454347      2.436724535      4.659489043
C        5.413230928     -2.968685886      3.213601809
H        5.707941616     -3.749246111      3.924221116
H        4.941454287     -3.463301555      2.356928193
H        6.329517731     -2.487312869      2.853314167
C        4.668718779     -1.960848561      5.295927100
H        4.217495542     -2.841055386      5.767882596
H        5.727360638     -1.940938557      5.578749564
H        4.194243360     -1.073646003      5.730499731
C       -4.698266009      0.584718117     -2.757464725
C       -5.792998522      0.018157720     -3.609870916
C       -5.628019709      1.501037917     -3.388980491
N       -6.514968978     -1.104708299     -4.225363048
N       -6.071492923      2.881389703     -3.631592228
C       -5.663694679     -2.000194562     -5.021815444
H       -5.993537376     -3.042076915     -4.939393289
H       -5.684515997     -1.730430599     -6.083842478
H       -4.619814810     -1.957294515     -4.690782099
C       -7.415901357     -1.830985230     -3.318862817
H       -8.368399568     -2.066476821     -3.807124347
H       -6.971800539     -2.776786998     -2.988195277
H       -7.641157475     -1.241117575     -2.423081313
C       -5.810914685      3.384516279     -4.988007589
H       -4.986159336      4.106213875     -4.994304233
H       -5.542346530      2.570419725     -5.670814656
H       -6.692043072      3.886625294     -5.403468745
C       -7.447536321      3.172260921     -3.204042815
H       -7.570829928      4.231027576     -2.949248173
H       -8.169187456      2.936808610     -3.994542273
H       -7.723139976      2.585810519     -2.320172224
