34
H15 C18 N1
N -1.416242 -0.268448 -1.693218
C -1.772010 0.926024 -0.913753
C -1.158907 1.191116 0.322436
C -2.734835 1.835104 -1.383724
C -1.496035 2.323626 1.061753
C -3.072386 2.967788 -0.644866
C -2.454507 3.217467 0.581551
H -0.412125 0.502420 0.705160
H -3.221492 1.650442 -2.336368
H -1.008769 2.507952 2.014959
H -3.819719 3.656622 -1.028283
H -2.717340 4.099914 1.157401
C -0.589667 -1.197930 -0.909805
C -1.112984 -1.858173 0.214717
C 0.746178 -1.451374 -1.264229
C -0.329476 -2.739561 0.957747
C 1.530186 -2.332653 -0.521597
C 0.996013 -2.981024 0.593072
H -2.142726 -1.677565 0.507081
H 1.171556 -0.952375 -2.129399
H -0.755606 -3.238633 1.823395
H 2.560543 -2.513034 -0.814570
H 1.606667 -3.667704 1.171839
C -0.915443 0.013422 -3.046233
C -0.613303 1.326172 -3.445897
C -0.725296 -1.022247 -3.976590
C -0.138430 1.593756 -4.728753
C -0.250454 -0.755294 -5.259588
C 0.045276 0.554155 -5.641821
H -0.752559 2.142149 -2.743577
H -0.952207 -2.044319 -3.689630
H 0.088480 2.616669 -5.015405
H -0.111280 -1.572159 -5.961991
H 0.415254 0.762393 -6.641395