30
H18 C9 N3
C 1.684559 -0.038588 0.523659
C 2.422721 0.115859 1.829878
N 1.684559 -0.038588 -0.946341
N 3.668794 0.376579 2.564878
C 1.134266 -1.253713 -1.564038
H 1.751913 -1.588562 -2.405167
H 1.081669 -2.078498 -0.844266
H 0.121099 -1.083588 -1.945688
C 1.134266 1.176536 -1.564038
H 1.742117 1.501360 -2.416162
H 0.114477 1.011424 -1.929927
H 1.098087 2.006334 -0.849031
C 4.657604 -0.709726 2.509239
H 4.976780 -1.010596 3.513586
H 4.248002 -1.597129 2.013407
H 5.553246 -0.406060 1.955415
C 4.286348 1.681994 2.290252
H 4.875946 2.032244 3.145125
H 4.957111 1.631974 1.424988
H 3.528875 2.444799 2.077009
C 1.004549 -0.186200 1.850996
N -0.163899 -0.576723 2.652944
C -0.077330 -1.912283 3.260962
H -1.065473 -2.278531 3.561867
H 0.346423 -2.642252 2.561901
H 0.557556 -1.903646 4.154245
C -0.609641 0.430639 3.626307
H -1.661189 0.697593 3.471093
H -0.510553 0.063564 4.654191
H -0.020161 1.351082 3.546271