70
H28 C36 N2 O4
C -0.095780 -0.375059 -1.384641
C -1.132923 0.434704 -0.891742
C 1.098697 -0.442560 -0.647756
C -0.981460 1.150801 0.294466
C 1.250760 0.273301 0.538517
C 0.211263 1.073493 1.015332
H 1.913501 -1.061917 -1.009636
H -1.797098 1.770417 0.656153
H 0.329507 1.631338 1.939574
C 2.572942 0.177406 1.322252
C 2.755407 0.887379 2.520991
C 3.631110 -0.622546 0.858908
C 3.951995 0.800788 3.230571
C 4.827933 -0.709543 1.568041
C 4.994087 0.001807 2.757405
H 1.951316 1.511733 2.897930
H 3.512408 -1.179973 -0.065024
H 4.070269 1.358777 4.155053
H 5.632242 -1.334445 1.190429
H -0.213370 -0.929822 -2.303776
N 6.127897 -0.005767 3.553257
C 7.384069 -0.120417 2.798415
C 8.288985 -1.164066 3.055816
C 7.713976 0.810530 1.799000
C 9.480163 -1.273042 2.340245
C 8.905000 0.702085 1.083091
C 9.793876 -0.340358 1.350346
H 8.054772 -1.894885 3.823613
H 7.029718 1.625178 1.583119
H 10.164529 -2.088406 2.556651
H 9.138897 1.433640 0.314895
C 6.104424 -0.919628 4.704433
C 6.987066 -0.744986 5.783681
C 5.198710 -1.992601 4.756797
C 6.965050 -1.611340 6.875363
C 5.176214 -2.859291 5.848203
C 6.059396 -2.672755 6.912819
H 7.695497 0.077346 5.764688
H 4.507441 -2.146748 3.934088
H 7.656979 -1.456659 7.698354
H 4.467126 -3.682006 5.866723
N -2.375027 0.807736 -1.617679
C -2.458864 2.243391 -1.922252
C -3.519051 3.025059 -1.433039
C -1.481088 2.872980 -2.710861
C -3.598820 4.386366 -1.721663
C -1.560309 4.234246 -2.999829
C -2.619695 4.997514 -2.506537
H -4.285933 2.559721 -0.821633
H -0.652908 2.288614 -3.099574
H -4.427743 4.970669 -1.332455
H -0.792670 4.699409 -3.611680
C -3.615211 0.312921 -1.002862
C -4.818030 0.279650 -1.728431
C -3.631499 -0.140214 0.327076
C -5.994131 -0.189476 -1.145737
C -4.807281 -0.609454 0.910322
C -5.994347 -0.636319 0.176588
H -4.828973 0.624855 -2.757594
H -2.713774 -0.123627 0.906706
H -6.912189 -0.205868 -1.726174
H -4.795799 -0.954772 1.940191
O -7.209222 -1.121036 0.778858
H -7.750067 -0.366712 1.046981
O -2.701821 6.403870 -2.804894
H -2.482988 6.907352 -2.009893
O 11.024412 -0.452668 0.610909
H 11.354250 0.433520 0.412707
O 6.036403 -3.567966 8.040501
H 6.019804 -3.047972 8.854588