22
C12H10
C       -0.090450209      0.000000000     -1.973818796
C       -1.246518902     -0.354690359     -1.275654796
C        1.065618484      0.354690359     -1.275654796
H       -2.145944008     -0.630640582     -1.818827796
H        1.965043590      0.630640582     -1.818827796
C       -1.246518902     -0.354690359      0.120675204
C        1.065618484      0.354690359      0.120675204
H       -2.145944008     -0.630640582      0.663848204
H        1.965043590      0.630640582      0.663848204
C       -0.090450209      0.000000000      0.818839204
H       -0.090450209      0.000000000     -3.060165796
C       -0.090450209      0.000000000      2.358839204
C       -1.295569599      0.000000000      3.081347768
C        1.114669181      0.000000000      3.081347768
C       -1.295893455      0.000000000      4.475199926
C        1.114993037      0.000000000      4.475199926
C       -0.090450209      0.000000000      5.178847502
H       -2.238786115      0.000000000      2.543940092
H        2.057885697      0.000000000      2.543940092
H       -2.239996829      0.000000000      5.012485602
H        2.059096411      0.000000000      5.012485602
H       -0.090450209      0.000000000      6.264847846
