46
H21 C21 N1 O3
N -1.388411 -0.268448 -2.792536
C -1.744180 0.926024 -2.013071
C -1.131077 1.191116 -0.776882
C -2.707004 1.835104 -2.483042
C -1.468204 2.323626 -0.037565
C -3.044555 2.967788 -1.744184
C -2.426676 3.217467 -0.517767
H -0.384294 0.502420 -0.394158
H -3.193661 1.650442 -3.435686
H -0.980938 2.507952 0.915641
H -3.791888 3.656622 -2.127601
C -0.561836 -1.197930 -2.009123
C -1.085153 -1.858173 -0.884601
C 0.774009 -1.451374 -2.363547
C -0.301645 -2.739561 -0.141571
C 1.558016 -2.332653 -1.620915
C 1.023844 -2.981024 -0.506246
H -2.114895 -1.677565 -0.592237
H 1.199386 -0.952375 -3.228717
H -0.727775 -3.238633 0.724077
H 2.588374 -2.513034 -1.913888
O 1.833550 -3.891538 0.261179
C 1.636673 -5.283414 0.074582
H 0.615429 -5.588216 0.337584
H 1.844579 -5.588216 -0.959286
H 2.341703 -5.780142 0.742797
O -2.775184 4.387562 0.245791
C -3.359008 4.203441 1.524911
H -4.312547 3.663191 1.462416
H -2.687051 3.663191 2.204335
H -3.539762 5.203847 1.920933
C -0.906151 0.010335 -4.152905
C -0.036662 1.084893 -4.405189
C -1.301575 -0.790177 -5.237871
C 0.420786 1.349487 -5.694978
C -0.844466 -0.526087 -6.527884
C 0.019004 0.545145 -6.762601
H 0.282039 1.716760 -3.582001
H -1.972889 -1.625881 -5.066402
H 1.092525 2.185857 -5.866028
H -1.163673 -1.158667 -7.351265
O 0.491423 0.818239 -8.095208
C 1.692902 0.196631 -8.520590
H 2.546337 0.492227 -7.896662
H 1.608606 -0.897838 -8.513963
H 1.862663 0.536315 -9.543386